/*---------------------------------------------------------------------------*\
| =========                 |                                                 |
| \\      /  F ield         | OpenFOAM: The Open Source CFD Toolbox           |
|  \\    /   O peration     | Version:  2512                                  |
|   \\  /    A nd           | Website:  www.openfoam.com                      |
|    \\/     M anipulation  |                                                 |
\*---------------------------------------------------------------------------*/
Build  : _87ed40d2-20251219 OPENFOAM=2512 version=2512
Arch   : "LSB;label=32;scalar=64"
Exec   : cartesianMesh
Date   : Feb 23 2026
Time   : 17:02:02
Host   : kteenakul20240322-0930
PID    : 34635
I/O    : uncollated
Case   : /home/kevin/Desktop/test/meshCase
nProcs : 1
trapFpe: Floating point exception trapping enabled (FOAM_SIGFPE).
memory pool : not available
fileModificationChecking : Monitoring run-time modified files using timeStampMaster (fileModificationSkew 5, maxFileModificationPolls 20)
allowSystemOperations : Allowing user-supplied system call operations

// * * * * * * * * * * * * * * * * * * * * * * * * * * * * * * * * * * * * * //
Create time

Created 10 surface patches
Setting root cube size and refinement parameters
Root box (-0.0378629106118375 -0.0428629106118375 -0.0228629106118375) (0.0378629106118375 0.0328629106118375 0.0528629106118375)
Requested cell size corresponds to octree level 6
Requested boundary cell size corresponds to octree level 6
Refining boundary
Refining boundary boxes to the given size
Finished refining boundary boxes
Performing automatic refinement
Performing automatic refinement
Marking inside/outside.
Number of internal boxes is 1544
Number of outside boxes is 5992
Number of data boxes is 3392
Number of unknown boxes is 0
Refining boxes near DATA boxes
Marking inside/outside.
Number of internal boxes is 7088
Number of outside boxes is 5992
Number of data boxes is 3392
Number of unknown boxes is 0
Finished refining boxes near DATA boxes
Extracting polyMesh
Creating octree vertices
Octree nodes 11978
Resizing points!
Finished creating octree vertices
Creating polyMesh from octree
Reordering boundary faces 
Finished reordering boundary faces
Finished creating polyMesh
Mesh has :
8622 vertices 
22582 faces
7024 cells
Finished extracting polyMesh
Checking for irregular surface connections
Checking cells connected to surface vertices
Found 3020 boundary faces 
Found 0 problematic vertices
Finished checking cells connected to surface vertices
Checking for non - manifold surface edges
Found 0 non - manifold edges
Finished checking for non - manifold surface edges
Checking faces connections to surface vertices
Found 0 invalid connections
Finished checking faces connections to surface vertices
Finished checking for irregular surface connections
Found 3020 boundary faces 
Found 0 non - mappable cells
Checking cell connections
Finished checking cell connections
Found 3020 boundary faces 
Marked 0 faces for decomposition
Found 3020 boundary faces 
Smoothing mesh surface before mapping.
Found 0 corners at the surface of the volume mesh
Found 0 edge points at the surface of the volume mesh
Starting untangling the surface of the volume mesh
Number of inverted boundary faces is 0
Finished untangling the surface of the volume mesh
Found 0 corners at the surface of the volume mesh
Found 0 edge points at the surface of the volume mesh
Starting untangling the surface of the volume mesh
Number of inverted boundary faces is 0
Finished untangling the surface of the volume mesh
Found 0 corners at the surface of the volume mesh
Found 0 edge points at the surface of the volume mesh
Starting untangling the surface of the volume mesh
Number of inverted boundary faces is 8
Number of inverted boundary faces is 0
Finished untangling the surface of the volume mesh
Finished smoothing mesh surface before mapping.
Mapping vertices onto surface
Finished mapping vertices onto surface
Found 0 corners at the surface of the volume mesh
Found 0 edge points at the surface of the volume mesh
Starting untangling the surface of the volume mesh
Number of inverted boundary faces is 0
Finished untangling the surface of the volume mesh
Found 3020 boundary faces 
Extracting edges
Starting topological adjustment of patches
No topological adjustment was needed
Starting geometrical adjustment of patches
Found 16 corners at the surface of the volume mesh
Found 356 edge points at the surface of the volume mesh
24 edge groups found!
No geometrical adjustment was needed
Found 3020 boundary faces 
Found 16 corners at the surface of the volume mesh
Found 356 edge points at the surface of the volume mesh
Decomposing 8 internal faces
Performing patch correction
Found 3020 boundary faces 
Found 16 corners at the surface of the volume mesh
Found 356 edge points at the surface of the volume mesh
Finished with patch correction
Found 3020 boundary faces 
Removing selected cells from the mesh
New cells size 7012
Reordering boundary faces 
Finished reordering boundary faces
Removing faces
Finished removing faces
Finished removing selected cells from the mesh
Adding new cells 
Adding 120 cells to the mesh
Finished adding cells to the mesh
Reordering bnd faces
Reordering boundary faces 
Finished reordering boundary faces
Finding bnd faces
Found 3020 boundary faces 
Mapping vertices with respect to surface patches
Found 16 corners at the surface of the volume mesh
Found 356 edge points at the surface of the volume mesh
24 edge groups found!
Finished mapping vertices with respect to surface patches
Found 3020 boundary faces 
Found 16 corners at the surface of the volume mesh
Found 356 edge points at the surface of the volume mesh
Optimizing edges. Iteration:.....
Optimizing surface vertices. Iteration:.....
Starting untangling the surface of the volume mesh
Number of inverted boundary faces is 0
Finished untangling the surface of the volume mesh
Found 3020 boundary faces 
Found 16 corners at the surface of the volume mesh
Found 356 edge points at the surface of the volume mesh
Found 16 corners at the surface of the volume mesh
Found 356 edge points at the surface of the volume mesh
Starting creating layer cells
Adding 3396 cells to the mesh
Finished adding cells to the mesh
Reordering boundary faces 
Finished reordering boundary faces
Finished creating layer cells
Found 3784 boundary faces 
Found 16 corners at the surface of the volume mesh
Found 396 edge points at the surface of the volume mesh
Optimizing edges. Iteration:.....
Optimizing surface vertices. Iteration:.....
Starting untangling the surface of the volume mesh
Number of inverted boundary faces is 0
Finished untangling the surface of the volume mesh
Found 3784 boundary faces 
Found 16 corners at the surface of the volume mesh
Found 396 edge points at the surface of the volume mesh
Starting smoothing the mesh
Starting untangling the mesh
Iteration 0. Number of bad faces is 0
Finished untangling the mesh
Finished smoothing the mesh
Iteration 0. Number of bad faces is 0
Starting untangling the mesh
Iteration 0. Number of bad faces is 0
Finished untangling the mesh
Renumbering the mesh
Finished renumbering the mesh
Renaming boundary patches
Finished renaming boundary patches
ExecutionTime = 9.5 s  ClockTime = 1 s

End

