/*---------------------------------------------------------------------------*\
| =========                 |                                                 |
| \\      /  F ield         | OpenFOAM: The Open Source CFD Toolbox           |
|  \\    /   O peration     | Version:  2512                                  |
|   \\  /    A nd           | Website:  www.openfoam.com                      |
|    \\/     M anipulation  |                                                 |
\*---------------------------------------------------------------------------*/
Build  : _87ed40d2-20251219 OPENFOAM=2512 version=2512
Arch   : "LSB;label=32;scalar=64"
Exec   : /usr/lib/openfoam/openfoam2512/platforms/linux64GccDPInt32Opt/bin/potentialFoam -parallel -initialiseUBCs -pName p -writep
Date   : Feb 23 2026
Time   : 19:59:11
Host   : 2a02-1810-3e2f-eb00-8bc9-cae7-addd-2361.ip6.access.telenet.be
PID    : 11490
I/O    : uncollated
Case   : /home/kevin/Desktop/OpenFOAM_periodic_test/my_case/case
nProcs : 4
Hosts  :
(
    (2a02-1810-3e2f-eb00-8bc9-cae7-addd-2361.ip6.access.telenet.be 4)
)
Pstream initialized with:
    node communication : off [type=host] (4 ranks, 1 nodes)
    topology controls  : none
    consensus exchange : 0 (tuning: 0)
    exchange algorithm : 0
    commsType          : nonBlocking
    polling iterations : 0
trapFpe: Floating point exception trapping enabled (FOAM_SIGFPE).
memory pool : not available
fileModificationChecking : Monitoring run-time modified files using timeStampMaster (fileModificationSkew 5, maxFileModificationPolls 20)
allowSystemOperations : Allowing user-supplied system call operations

// * * * * * * * * * * * * * * * * * * * * * * * * * * * * * * * * * * * * * //
Create time

Create mesh for time = 0


potentialFlow: Operating solver in PISO mode

Reading velocity field U

AMI: Creating AMI for source:constraint_master and target:constraint_slave
AMI: Patch source faces: 260
AMI: Patch target faces: 260
AMI: distributed
--> FOAM Warning : 
    From void Foam::advancingFrontAMI::checkPatches() const
    in file AMIInterpolation/AMIInterpolation/advancingFrontAMI/advancingFrontAMI.C at line 107
    Source and target patch bounding boxes are not similar
    source box span     : (0 0.01 0.03)
    target box span     : (-2e+150 -2e+150 -2e+150)
    source box          : (-0.025 -0.01 0) (-0.025 6.66134e-18 0.03)
    target box          : (1e+150 1e+150 1e+150) (-1e+150 -1e+150 -1e+150)
    inflated target box : (8.26794919243112e+149 8.26794919243112e+149 8.26794919243112e+149) (-8.26794919243112e+149 -8.26794919243112e+149 -8.26794919243112e+149)
AMI: Patch source sum(weights) min:0 max:0 average:0
AMI: Patch target sum(weights) min:0 max:0 average:0
Constructing pressure field p

Constructing velocity potential field Phi

No MRF models present


Calculating potential flow
GAMG:  Solving for Phi, Initial residual = 0, Final residual = 0, No Iterations 0
GAMG:  Solving for Phi, Initial residual = 0, Final residual = 0, No Iterations 0
GAMG:  Solving for Phi, Initial residual = 0, Final residual = 0, No Iterations 0
GAMG:  Solving for Phi, Initial residual = 0, Final residual = 0, No Iterations 0
GAMG:  Solving for Phi, Initial residual = 0, Final residual = 0, No Iterations 0
GAMG:  Solving for Phi, Initial residual = 0, Final residual = 0, No Iterations 0
GAMG:  Solving for Phi, Initial residual = 0, Final residual = 0, No Iterations 0
GAMG:  Solving for Phi, Initial residual = 0, Final residual = 0, No Iterations 0
GAMG:  Solving for Phi, Initial residual = 0, Final residual = 0, No Iterations 0
Continuity error = 0
Interpolated velocity error = 0

Calculating approximate pressure field
[2] [stack trace]
[2] =============
[1] [stack trace]
[1] =============
[3] [stack trace]
[3] =============
[0] [stack trace]
[0] =============
[2] #1  [3] #1  [1] #1  Foam::sigFpe::sigHandler(int)Foam::sigFpe::sigHandler(int)Foam::sigFpe::sigHandler(int)[0] #1  Foam::sigFpe::sigHandler(int) in /usr/lib/openfoam/openfoam2512/platforms/linux64GccDPInt32Opt/lib/libOpenFOAM.so
[0] #2  ? in /usr/lib/openfoam/openfoam2512/platforms/linux64GccDPInt32Opt/lib/libOpenFOAM.so
[1] #2  ? in /usr/lib/openfoam/openfoam2512/platforms/linux64GccDPInt32Opt/lib/libOpenFOAM.so
[3] #2  ? in /usr/lib/openfoam/openfoam2512/platforms/linux64GccDPInt32Opt/lib/libOpenFOAM.so
[2] #2  ? in /lib64/libc.so.6
 in /lib64/libc.so.6
[1] #3  ?[0] #3  ? in /lib64/libc.so.6
[2] #3  ? in /lib64/libc.so.6
[3] #3  ? in /usr/lib/openfoam/openfoam2512/platforms/linux64GccDPInt32Opt/bin/potentialFoam
[0] # in /usr/lib/openfoam/openfoam2512/platforms/linux64GccDPInt32Opt/bin/potentialFoam
[2] #4  ? in /usr/lib/openfoam/openfoam2512/platforms/linux64GccDPInt32Opt/bin/potentialFoam
[1] #4  ?4  ? in /usr/lib/openfoam/openfoam2512/platforms/linux64GccDPInt32Opt/bin/potentialFoam
[3] #4  ? in /usr/lib/openfoam/openfoam2512/platforms/linux64GccDPInt32Opt/bin/potentialFoam
[0] #5  ? in /usr/lib/openfoam/openfoam2512/platforms/linux64GccDPInt32Opt/bin/potentialFoam
[2] #5  ? in /usr/lib/openfoam/openfoam2512/platforms/linux64GccDPInt32Opt/bin/potentialFoam
[3] #5  ? in /usr/lib/openfoam/openfoam2512/platforms/linux64GccDPInt32Opt/bin/potentialFoam
[1] #5  ? in /usr/lib/openfoam/openfoam2512/platforms/linux64GccDPInt32Opt/bin/potentialFoam
 in /usr/lib/openfoam/openfoam2512/platforms/linux64GccDPInt32Opt/bin/potentialFoam
[0] #6  ? in /usr/lib/openfoam/openfoam2512/platforms/linux64GccDPInt32Opt/bin/potentialFoam
 in /usr/lib/openfoam/openfoam2512/platforms/linux64GccDPInt32Opt/bin/potentialFoam
[1] #6  ?[3] #6  ?[2] #6  ? in /lib64/libc.so.6
[3] #7  __libc_start_main in /lib64/libc.so.6
 in /lib64/libc.so.6
 in /lib64/libc.so.6
[2] #7  [1] #7  __libc_start_main[0] #7  __libc_start_main__libc_start_main in /lib64/libc.so.6
[3] #8   in /lib64/libc.so.6
[0] #8  ? in /lib64/libc.so.6
[2] #8  ?? in /lib64/libc.so.6
[1] #8  ? in /usr/lib/openfoam/openfoam2512/platforms/linux64GccDPInt32Opt/bin/potentialFoam
[0] =============
 in /usr/lib/openfoam/openfoam2512/platforms/linux64GccDPInt32Opt/bin/potentialFoam
[1] =============
 in /usr/lib/openfoam/openfoam2512/platforms/linux64GccDPInt32Opt/bin/potentialFoam
[3] =============
 in /usr/lib/openfoam/openfoam2512/platforms/linux64GccDPInt32Opt/bin/potentialFoam
[2] =============
[2a02-1810-3e2f-eb00-8bc9-cae7-addd-2361:11492:0:11492] Caught signal 8 (Floating point exception: tkill(2) or tgkill(2))
[2a02-1810-3e2f-eb00-8bc9-cae7-addd-2361:11491:0:11491] Caught signal 8 (Floating point exception: tkill(2) or tgkill(2))
[2a02-1810-3e2f-eb00-8bc9-cae7-addd-2361:11490:0:11490] Caught signal 8 (Floating point exception: tkill(2) or tgkill(2))
[2a02-1810-3e2f-eb00-8bc9-cae7-addd-2361:11493:0:11493] Caught signal 8 (Floating point exception: tkill(2) or tgkill(2))
==== backtrace (tid:  11493) ====
 0  /lib64/libucs.so.0(ucs_handle_error+0x2dc) [0x7f5cfa0be16c]
 1  /lib64/libucs.so.0(+0x33e5a) [0x7f5cfa0bee5a]
 2  /lib64/libucs.so.0(+0x3411a) [0x7f5cfa0bf11a]
 3  /lib64/libc.so.6(+0x42910) [0x7f5cf9e42910]
 4  /lib64/libc.so.6(+0x9dd3c) [0x7f5cf9e9dd3c]
 5  /lib64/libc.so.6(gsignal+0x18) [0x7f5cf9e427b6]
 6  /lib64/libc.so.6(+0x42910) [0x7f5cf9e42910]
 7  /usr/lib/openfoam/openfoam2512/platforms/linux64GccDPInt32Opt/bin/potentialFoam(+0x6fa45) [0x55bdd960da45]
 8  /usr/lib/openfoam/openfoam2512/platforms/linux64GccDPInt32Opt/bin/potentialFoam(+0xa92ef) [0x55bdd96472ef]
 9  /usr/lib/openfoam/openfoam2512/platforms/linux64GccDPInt32Opt/bin/potentialFoam(+0x31dac) [0x55bdd95cfdac]
10  /lib64/libc.so.6(+0x2b2fb) [0x7f5cf9e2b2fb]
11  /lib64/libc.so.6(__libc_start_main+0x8d) [0x7f5cf9e2b3cb]
12  /usr/lib/openfoam/openfoam2512/platforms/linux64GccDPInt32Opt/bin/potentialFoam(+0x32655) [0x55bdd95d0655]
=================================
==== backtrace (tid:  11492) ====
 0  /lib64/libucs.so.0(ucs_handle_error+0x2dc) [0x7f6b38d5c16c]
 1  /lib64/libucs.so.0(+0x33e5a) [0x7f6b38d5ce5a]
 2  /lib64/libucs.so.0(+0x3411a) [0x7f6b38d5d11a]
 3  /lib64/libc.so.6(+0x42910) [0x7f6b37642910]
 4  /lib64/libc.so.6(+0x9dd3c) [0x7f6b3769dd3c]
 5  /lib64/libc.so.6(gsignal+0x18) [0x7f6b376427b6]
 6  /lib64/libc.so.6(+0x42910) [0x7f6b37642910]
 7  /usr/lib/openfoam/openfoam2512/platforms/linux64GccDPInt32Opt/bin/potentialFoam(+0x6fa45) [0x55d668fc9a45]
 8  /usr/lib/openfoam/openfoam2512/platforms/linux64GccDPInt32Opt/bin/potentialFoam(+0xa92ef) [0x55d6690032ef]
 9  /usr/lib/openfoam/openfoam2512/platforms/linux64GccDPInt32Opt/bin/potentialFoam(+0x31dac) [0x55d668f8bdac]
10  /lib64/libc.so.6(+0x2b2fb) [0x7f6b3762b2fb]
11  /lib64/libc.so.6(__libc_start_main+0x8d) [0x7f6b3762b3cb]
12  /usr/lib/openfoam/openfoam2512/platforms/linux64GccDPInt32Opt/bin/potentialFoam(+0x32655) [0x55d668f8c655]
=================================
==== backtrace (tid:  11491) ====
 0  /lib64/libucs.so.0(ucs_handle_error+0x2dc) [0x7f86fd6be16c]
 1  /lib64/libucs.so.0(+0x33e5a) [0x7f86fd6bee5a]
 2  /lib64/libucs.so.0(+0x3411a) [0x7f86fd6bf11a]
 3  /lib64/libc.so.6(+0x42910) [0x7f86fd442910]
 4  /lib64/libc.so.6(+0x9dd3c) [0x7f86fd49dd3c]
 5  /lib64/libc.so.6(gsignal+0x18) [0x7f86fd4427b6]
 6  /lib64/libc.so.6(+0x42910) [0x7f86fd442910]
 7  /usr/lib/openfoam/openfoam2512/platforms/linux64GccDPInt32Opt/bin/potentialFoam(+0x6fa45) [0x55c841ae0a45]
 8  /usr/lib/openfoam/openfoam2512/platforms/linux64GccDPInt32Opt/bin/potentialFoam(+0xa92ef) [0x55c841b1a2ef]
 9  /usr/lib/openfoam/openfoam2512/platforms/linux64GccDPInt32Opt/bin/potentialFoam(+0x31dac) [0x55c841aa2dac]
10  /lib64/libc.so.6(+0x2b2fb) [0x7f86fd42b2fb]
11  /lib64/libc.so.6(__libc_start_main+0x8d) [0x7f86fd42b3cb]
12  /usr/lib/openfoam/openfoam2512/platforms/linux64GccDPInt32Opt/bin/potentialFoam(+0x32655) [0x55c841aa3655]
=================================
==== backtrace (tid:  11490) ====
 0  /lib64/libucs.so.0(ucs_handle_error+0x2dc) [0x7fa3f135c16c]
 1  /lib64/libucs.so.0(+0x33e5a) [0x7fa3f135ce5a]
 2  /lib64/libucs.so.0(+0x3411a) [0x7fa3f135d11a]
 3  /lib64/libc.so.6(+0x42910) [0x7fa3efc42910]
 4  /lib64/libc.so.6(+0x9dd3c) [0x7fa3efc9dd3c]
 5  /lib64/libc.so.6(gsignal+0x18) [0x7fa3efc427b6]
 6  /lib64/libc.so.6(+0x42910) [0x7fa3efc42910]
 7  /usr/lib/openfoam/openfoam2512/platforms/linux64GccDPInt32Opt/bin/potentialFoam(+0x6fa45) [0x55be3c161a45]
 8  /usr/lib/openfoam/openfoam2512/platforms/linux64GccDPInt32Opt/bin/potentialFoam(+0xa92ef) [0x55be3c19b2ef]
 9  /usr/lib/openfoam/openfoam2512/platforms/linux64GccDPInt32Opt/bin/potentialFoam(+0x31dac) [0x55be3c123dac]
10  /lib64/libc.so.6(+0x2b2fb) [0x7fa3efc2b2fb]
11  /lib64/libc.so.6(__libc_start_main+0x8d) [0x7fa3efc2b3cb]
12  /usr/lib/openfoam/openfoam2512/platforms/linux64GccDPInt32Opt/bin/potentialFoam(+0x32655) [0x55be3c124655]
=================================
--------------------------------------------------------------------------
prterun noticed that process rank 0 with PID 11490 on node 2a02-1810-3e2f-eb00-8bc9-cae7-addd-2361 exited on
signal 8 (Floating point exception).
--------------------------------------------------------------------------
